Version 4
SHEET 1 5945676 13421556
WIRE 2704 -160 2496 -160
WIRE 2496 -96 2496 -160
WIRE 2704 -64 2704 -160
WIRE 2496 16 2496 -16
WIRE 2704 80 2704 16
WIRE 2832 80 2704 80
WIRE 2992 80 2896 80
WIRE 3072 80 2992 80
WIRE 3152 80 3072 80
WIRE 3264 80 3152 80
WIRE 2992 160 2992 80
WIRE 3072 160 3072 80
WIRE 3152 160 3152 80
WIRE 2160 176 2000 176
WIRE 2704 176 2704 80
WIRE 2000 224 2000 176
WIRE 2656 256 2448 256
WIRE 2992 320 2992 224
WIRE 3072 320 3072 224
WIRE 3152 320 3152 240
WIRE 2000 336 2000 304
WIRE 1632 352 1520 352
WIRE 1824 352 1632 352
WIRE 2000 352 2000 336
WIRE 1632 384 1632 352
WIRE 2448 400 2448 256
WIRE 2160 480 2160 176
WIRE 1632 544 1632 464
WIRE 2000 544 1632 544
WIRE 2448 576 2448 480
WIRE 2448 576 2320 576
WIRE 1632 608 1632 544
WIRE 1760 608 1632 608
WIRE 1888 608 1840 608
WIRE 2000 608 1952 608
WIRE 1632 624 1632 608
WIRE 2704 640 2704 272
WIRE 2816 640 2704 640
WIRE 1856 672 1744 672
WIRE 2000 672 1856 672
WIRE 1744 688 1744 672
WIRE 1856 688 1856 672
WIRE 2704 688 2704 640
WIRE 2704 688 2640 688
WIRE 2416 704 2320 704
WIRE 2592 704 2496 704
WIRE 1632 720 1632 704
WIRE 2592 720 2592 704
WIRE 2704 720 2704 688
WIRE 2816 720 2816 640
WIRE 2000 736 1952 736
WIRE 2640 736 2640 688
WIRE 1856 768 1856 752
WIRE 1744 800 1744 768
WIRE 1952 800 1952 736
WIRE 1952 800 1744 800
WIRE 1744 816 1744 800
WIRE 2640 816 2640 784
WIRE 2704 816 2704 800
WIRE 2704 816 2640 816
WIRE 2160 848 2160 800
WIRE 2592 848 2592 800
WIRE 2704 848 2704 816
WIRE 2816 848 2816 784
WIRE 1744 896 1744 880
WIRE 1520 928 1520 352
WIRE 3264 928 3264 80
WIRE 3264 928 1520 928
FLAG 2704 848 0
FLAG 1744 896 0
FLAG 1856 768 0
FLAG 1632 720 0
FLAG 2160 848 0
FLAG 2000 352 0
FLAG 2000 336 IN
FLAG 2592 848 0
FLAG 3152 320 0
FLAG 2992 320 0
FLAG 2496 16 0
FLAG 3072 320 0
FLAG 2816 848 0
SYMBOL RES 2688 704 R0
SYMATTR InstName R1
SYMATTR Value 0.04R
SYMBOL cap 1728 816 R0
SYMATTR InstName C1
SYMATTR Value 300pF
SYMBOL cap 1840 688 R0
SYMATTR InstName C2
SYMATTR Value .1
SYMBOL cap 1952 592 R90
WINDOW 0 0 32 VBottom 0
WINDOW 3 32 32 VTop 0
SYMATTR InstName C3
SYMATTR Value .01
SYMBOL res 1856 592 R90
WINDOW 0 0 56 VBottom 0
WINDOW 3 32 56 VTop 0
SYMATTR InstName R2
SYMATTR Value 200K
SYMBOL res 1728 672 R0
SYMATTR InstName R3
SYMATTR Value 18K
SYMBOL res 1616 608 R0
SYMATTR InstName R4
SYMATTR Value 10K
SYMBOL res 2512 688 R90
WINDOW 0 0 56 VBottom 0
WINDOW 3 32 56 VTop 0
SYMATTR InstName R7
SYMATTR Value 1K
SYMBOL res 1616 368 R0
SYMATTR InstName R9
SYMATTR Value 96K
SYMBOL VOLTAGE 2000 208 R0
WINDOW 123 0 0 Left 0
WINDOW 39 0 0 Left 0
SYMATTR InstName V1
SYMATTR Value 18V
SYMBOL ind2 2688 -80 R0
SYMATTR InstName L1
SYMATTR Value 39
SYMATTR SpiceLine Ipk=2 Rser=0.16 Rpar=3110 Cpar=0
SYMATTR Type ind
SYMBOL e 2592 704 M0
SYMATTR InstName E1
SYMATTR Value 6
SYMBOL schottky 2832 96 R270
WINDOW 0 32 32 VTop 0
WINDOW 3 0 32 VBottom 0
SYMATTR InstName D1
SYMATTR Value MBRS130L
SYMATTR Description Diode
SYMATTR Type diode
SYMBOL cap 3008 224 R180
WINDOW 0 24 64 Left 0
WINDOW 3 24 8 Left 0
SYMATTR InstName C7
SYMATTR Value 10
SYMATTR SpiceLine V=10 Irms=8.919 Rser=0.005 Lser=0 mfg="KEMET" pn="C1210C106K8PAC" type="X5R"
SYMBOL PowerProducts\\LT1243 2160 640 R0
SYMATTR InstName U1
SYMBOL VOLTAGE 2496 -112 R0
WINDOW 123 0 0 Left 0
WINDOW 39 0 0 Left 0
SYMATTR InstName V2
SYMATTR Value 18V
SYMBOL nmos 2656 176 R0
SYMATTR InstName M1
SYMATTR Value FDS6294
SYMBOL res 2432 384 R0
SYMATTR InstName R8
SYMATTR Value 10R
SYMBOL res 3136 144 R0
SYMATTR InstName R5
SYMATTR Value 64R
SYMBOL cap 3088 224 R180
WINDOW 0 24 64 Left 0
WINDOW 3 24 8 Left 0
SYMATTR InstName C4
SYMATTR Value 10
SYMATTR SpiceLine V=10 Irms=8.919 Rser=0.005 Lser=0 mfg="KEMET" pn="C1210C106K8PAC" type="X5R"
SYMBOL cap 2800 720 R0
SYMATTR InstName C5
SYMATTR Value 0.1킚
TEXT 2552 896 Left 0 !.tran 0 16ms 10us uic
TEXT 1520 976 Left 0 !.include "NTD20N03L27.REV0.SP3"
