Version 4
SHEET 1 1820 1540
WIRE -896 384 -1120 384
WIRE -736 384 -896 384
WIRE -288 384 -736 384
WIRE -176 384 -288 384
WIRE -16 384 -176 384
WIRE 80 384 -16 384
WIRE 176 384 80 384
WIRE 368 384 272 384
WIRE 400 384 368 384
WIRE 544 384 480 384
WIRE 608 384 544 384
WIRE 656 384 608 384
WIRE 752 384 656 384
WIRE -1120 416 -1120 384
WIRE 368 416 368 384
WIRE 656 416 656 384
WIRE -16 432 -16 384
WIRE 544 432 544 384
WIRE -736 448 -736 384
WIRE 80 512 80 384
WIRE -1120 528 -1120 496
WIRE 368 528 368 480
WIRE 544 528 544 496
WIRE 656 528 656 496
WIRE -176 544 -176 384
WIRE -16 560 -16 512
WIRE 16 560 -16 560
WIRE -800 608 -1088 608
WIRE -736 608 -736 528
WIRE -736 608 -800 608
WIRE 112 608 80 608
WIRE -736 640 -736 608
WIRE -16 672 -16 560
WIRE 16 672 -16 672
WIRE 112 672 112 608
WIRE 112 672 80 672
WIRE 192 672 192 432
WIRE 192 672 112 672
WIRE -1088 688 -1088 608
WIRE -736 752 -736 720
WIRE -736 752 -976 752
WIRE -16 752 -16 672
WIRE -288 768 -288 384
WIRE -896 784 -896 384
WIRE -320 784 -400 784
WIRE -1088 800 -1088 768
WIRE -928 800 -1088 800
WIRE -176 800 -176 624
WIRE -176 800 -256 800
WIRE -80 800 -176 800
WIRE -1088 816 -1088 800
WIRE -800 816 -800 608
WIRE -800 816 -864 816
WIRE -736 816 -736 752
WIRE -640 816 -736 816
WIRE -528 816 -560 816
WIRE -512 816 -528 816
WIRE -352 816 -432 816
WIRE -320 816 -352 816
WIRE -976 832 -976 752
WIRE -928 832 -976 832
WIRE -736 864 -736 816
WIRE -288 864 -288 832
WIRE -896 880 -896 848
WIRE -528 880 -528 816
WIRE -1088 928 -1088 896
WIRE -352 944 -352 816
WIRE -288 944 -352 944
WIRE -176 944 -176 800
WIRE -176 944 -224 944
WIRE -16 960 -16 848
WIRE -736 976 -736 928
WIRE -528 976 -528 944
WIRE -400 1072 -400 784
WIRE 752 1072 752 384
WIRE 752 1072 -400 1072
FLAG -1120 528 0
FLAG -288 864 0
FLAG 544 528 0
FLAG -16 960 0
FLAG 656 528 0
FLAG -528 976 0
FLAG 368 528 0
FLAG 608 384 out
FLAG -736 976 0
FLAG -896 880 0
FLAG -1088 928 0
SYMBOL voltage -1120 400 R0
WINDOW 123 0 0 Left 2
WINDOW 39 0 0 Left 2
SYMATTR InstName V1
SYMATTR Value 12V
SYMBOL Opamps\\opamp2 -288 736 R0
SYMATTR InstName U2
SYMATTR Value lm2903
SYMBOL schottky 384 480 R180
WINDOW 0 24 64 Left 2
WINDOW 3 24 0 Left 2
SYMATTR InstName D1
SYMATTR Value MBRS340
SYMATTR Description Diode
SYMATTR Type diode
SYMBOL polcap 528 432 R0
WINDOW 3 24 56 Left 2
SYMATTR Value 220µ
SYMATTR InstName C3
SYMATTR Description Capacitor
SYMATTR Type cap
SYMATTR SpiceLine V=25 Irms=555m Rser=0.13 Lser=0 mfg="United Chemi-Con" pn="LXF25VB221M8X15LL" type="Al electrolytic"
SYMBOL ind 384 400 R270
WINDOW 0 32 56 VTop 2
WINDOW 3 5 56 VBottom 2
SYMATTR InstName L1
SYMATTR Value 10µ
SYMATTR SpiceLine Ipk=2.3 Rser=0.07 Rpar=0 Cpar=0 mfg="Sumida" pn="CD75-100"
SYMBOL pmos 272 432 M270
WINDOW 3 56 16 Left 2
SYMATTR Value Si2307BDS
SYMATTR InstName M1
SYMATTR Prefix X
SYMBOL npn3 -80 752 R0
SYMATTR InstName Q1
SYMATTR Value 2N2222
SYMBOL npn3 16 512 R0
SYMATTR InstName Q2
SYMATTR Value 2N2222
SYMBOL diode 80 656 R90
WINDOW 0 0 32 VBottom 2
WINDOW 3 32 32 VTop 2
SYMATTR InstName D2
SYMATTR Value 1N4148
SYMBOL res -32 416 R0
SYMATTR InstName R4
SYMATTR Value 2K2
SYMBOL res -192 528 R0
SYMATTR InstName R5
SYMATTR Value 4k7
SYMBOL cap -224 928 R90
WINDOW 0 0 32 VBottom 2
WINDOW 3 32 32 VTop 2
SYMATTR InstName C4
SYMATTR Value 22pF
SYMBOL res -416 800 R90
WINDOW 0 0 56 VBottom 2
WINDOW 3 32 56 VTop 2
SYMATTR InstName R3
SYMATTR Value 10K
SYMBOL res -544 800 R90
WINDOW 0 0 56 VBottom 2
WINDOW 3 32 56 VTop 2
SYMATTR InstName R9
SYMATTR Value 1K
SYMBOL cap -544 880 R0
SYMATTR InstName C5
SYMATTR Value 0.1µF
SYMBOL res 640 400 R0
SYMATTR InstName rload
SYMATTR Value 2R
SYMBOL zener -720 928 R180
WINDOW 0 24 64 Left 2
WINDOW 3 24 0 Left 2
SYMATTR InstName D3
SYMATTR Value D1N747
SYMATTR Description Diode
SYMATTR Type diode
SYMBOL Opamps\\opamp2 -896 752 R0
SYMATTR InstName U1
SYMATTR Value lm2903
SYMBOL res -1104 800 R0
SYMATTR InstName R1
SYMATTR Value 10K
SYMBOL res -1104 672 R0
SYMATTR InstName R2
SYMATTR Value 10K
SYMBOL res -752 624 R0
SYMATTR InstName R6
SYMATTR Value 720R
SYMBOL res -752 432 R0
SYMATTR InstName R7
SYMATTR Value 475R
TEXT -592 504 Left 2 !.tran 1ms startup
TEXT -592 536 Left 2 !.include "Si2307bd.lib"
TEXT -592 472 Left 2 !.include "LM2903.lib"
TEXT -1104 1144 Left 2 !*(+) 1N747     3.6 V  0.5W  CASE DO-35\n.model D1N747  D(Is=1.242f Rs=1.137 Ikf=0 N=1 Xti=3 Eg=1.11 Cjo=210p M=.6063\n+                               Vj=.75 Fc=.5 Isr=1.922n Nr=2 Bv=3.6 Ibv=13.987m Nbv=3.031\n+                               Ibvl=10.212m Nbvl=12.73 Tbv1=-555.6u)\n*                               Motorola        pid=1N747       case=DO-35\n*                               89-9-18 gjg\n*                               Vz = 3.6 @ 20mA, Zz = 330 @ 1mA, Zz = 52 @ 5mA, Zz = 7.3 @ 20mA\n*                               Motorola        pid=1N746       case=DO-35\n*                               89-9-18 gjg\n*                               Vz = 3.3 @ 20mA, Zz = 310 @ 1mA, Zz = 68 @ 5mA, Zz = 19 @ 20mA
